LAMMPS (10 Feb 2021)
# Harmonic beadspring benchmark, with yukawa potential

units		lj
atom_style	angle
special_bonds lj 1.0 1.0 1.0

read_data	lammps.main.conf
Reading data file ...
  orthogonal box = (-25.000000 -25.000000 -25.000000) to (25.000000 25.000000 25.000000)
  reading atoms ...
  21 atoms
  scanning bonds ...
  scanning angles ...
  reading bonds ...
  20 bonds
  reading angles ...
  19 angles
Finding 1-2 1-3 1-4 neighbors ...
     2 = max # of 1-2 neighbors
     2 = max # of 1-3 neighbors
     4 = max # of 1-4 neighbors
     6 = max # of special neighbors

neighbor	0.4 bin
neigh_modify	every 1 delay 1

bond_style  harmonic
bond_coeff	1 5.0 2.0

pair_style	hybrid/overlay lj/cut 1.12 yukawa 2.0 5.0

# lj/cut
pair_modify pair lj/cut shift yes
pair_coeff	* * lj/cut 1.0 1.0 1.12

# yukawa
pair_coeff * * yukawa 0.0
pair_coeff 1 1 yukawa 1.0

fix		1 all nve
fix		2 all langevin 1.0 1.0 1.0 904297

thermo  100
timestep	0.00012

run		10000
  update every 1 steps, delay 1 steps, check yes
Step Temp E_pair E_mol TotEng Press
0            0    1.0140023    4.7619048    5.7759071 0.0018241743
Averages over the last 51 of 101 rows, steps 5000 to 10000:
Temp E_pair E_mol TotEng Press
1.97188 0.0028571 1.70008 4.51991 -0.000323441
Loop time of 0.041353 on 1 procs for 10000 steps with 21 atoms
